Version 4
SHEET 1 1796 984
WIRE 1296 -432 1296 -448
WIRE -336 -352 -480 -352
WIRE 64 -352 -192 -352
WIRE 1296 -272 1296 -352
WIRE 1088 -272 928 -272
WIRE 1296 -272 1088 -272
WIRE -480 -256 -480 -352
WIRE 928 -128 928 -272
WIRE 976 -128 928 -128
WIRE 1200 -112 1040 -112
WIRE 64 -96 64 -352
WIRE 208 -96 64 -96
WIRE 368 -96 288 -96
WIRE 528 -96 448 -96
WIRE 688 -96 608 -96
WIRE 832 -96 768 -96
WIRE 976 -96 912 -96
WIRE 1088 32 1088 -272
WIRE 1088 32 928 32
WIRE 928 96 928 32
WIRE 976 96 928 96
WIRE 1200 112 1040 112
WIRE 64 128 64 -96
WIRE 208 128 64 128
WIRE 976 128 288 128
WIRE 1088 192 1088 32
WIRE 1088 192 928 192
WIRE 928 272 928 192
WIRE 976 272 928 272
WIRE 992 272 976 272
WIRE 1200 288 1040 288
WIRE 64 304 64 128
WIRE 208 304 64 304
WIRE 976 304 288 304
WIRE 1088 384 1088 192
WIRE 1088 384 928 384
WIRE 928 464 928 384
WIRE 976 464 928 464
WIRE 1200 480 1040 480
WIRE 64 496 64 304
WIRE 208 496 64 496
WIRE 976 496 288 496
WIRE 1088 592 1088 384
WIRE 1088 592 928 592
WIRE 928 672 928 592
WIRE 976 672 928 672
WIRE 1200 688 1040 688
WIRE 64 704 64 496
WIRE 208 704 64 704
WIRE 976 704 288 704
WIRE 1088 784 1088 592
WIRE 1088 784 928 784
WIRE 928 864 928 784
WIRE 976 864 928 864
WIRE 1200 880 1040 880
WIRE 64 896 64 704
WIRE 208 896 64 896
WIRE 976 896 288 896
FLAG -192 -352 +C
FLAG -336 -352 -C
FLAG -480 -256 0
FLAG 1296 -448 0
FLAG 1200 112 2
IOPIN 1200 112 In
FLAG 1200 -112 1
IOPIN 1200 -112 In
FLAG 1200 288 3
IOPIN 1200 288 In
FLAG 1200 480 4
IOPIN 1200 480 In
FLAG 1200 688 5
IOPIN 1200 688 In
FLAG 1200 880 6
IOPIN 1200 880 In
FLAG 1296 -352 V+
FLAG 1296 -432 V-
SYMBOL res 304 -112 R90
WINDOW 0 0 56 VBottom 2
WINDOW 3 32 56 VTop 2
SYMATTR InstName R1
SYMBOL res 304 112 R90
WINDOW 0 0 56 VBottom 2
WINDOW 3 32 56 VTop 2
SYMATTR InstName R2
SYMBOL res 304 288 R90
WINDOW 0 0 56 VBottom 2
WINDOW 3 32 56 VTop 2
SYMATTR InstName R3
SYMBOL res 304 480 R90
WINDOW 0 0 56 VBottom 2
WINDOW 3 32 56 VTop 2
SYMATTR InstName R4
SYMBOL res 304 688 R90
WINDOW 0 0 56 VBottom 2
WINDOW 3 32 56 VTop 2
SYMATTR InstName R5
SYMBOL res 304 880 R90
WINDOW 0 0 56 VBottom 2
WINDOW 3 32 56 VTop 2
SYMATTR InstName R6
SYMBOL res 464 -112 R90
WINDOW 0 0 56 VBottom 2
WINDOW 3 32 56 VTop 2
SYMATTR InstName R7
SYMBOL res 624 -112 R90
WINDOW 0 0 56 VBottom 2
WINDOW 3 32 56 VTop 2
SYMATTR InstName R8
SYMBOL res 784 -112 R90
WINDOW 0 0 56 VBottom 2
WINDOW 3 32 56 VTop 2
SYMATTR InstName R9
SYMBOL res 928 -112 R90
WINDOW 0 0 56 VBottom 2
WINDOW 3 32 56 VTop 2
SYMATTR InstName R10
SYMBOL AutoGenerated\\BS250P 1008 -112 R180
SYMATTR InstName U1
SYMBOL AutoGenerated\\BS250P 1008 112 R180
SYMATTR InstName U2
SYMBOL AutoGenerated\\BS250P 1008 288 R180
SYMATTR InstName U3
SYMBOL AutoGenerated\\BS250P 1008 480 R180
SYMATTR InstName U4
SYMBOL AutoGenerated\\BS250P 1008 688 R180
SYMATTR InstName U5
SYMBOL AutoGenerated\\BS250P 1008 880 R180
SYMATTR InstName U6
